#############################################################
#             ______       _    _          _   	            #
#            (_____ \     \ \  / /        | |               #
#             _____) )   _ \ \/ / |_  ____| |  	            #
#            |  ____/ | | | )  (|  _)/ _  | | 	            #
#            | |    | |_| |/ /\ \ |_( (_| | |___            #
#            |_|     \__  /_/  \_\___)__|_|_____)           #
#                   (____/                                  #
#---------------------(version    0.3.7)--------------------#
#       A Python package for random crystal generation      #
#       url: https://github.com/qzhu2017/pyxtal             #
#       @Zhu's group at University of Nevada Las Vegas      #
#############################################################
data_from_pyxtal

_symmetry_space_group_name_H-M 'Pnma'
_symmetry_Int_Tables_number                   62
_symmetry_cell_setting              orthorhombic
_cell_length_a           11.607547
_cell_length_b            8.052585
_cell_length_c            5.800998
_cell_angle_alpha        90.000000
_cell_angle_beta         90.000000
_cell_angle_gamma        90.000000
_cell_volume            542.223685

loop_
 _symmetry_equiv_pos_site_id
 _symmetry_equiv_pos_as_xyz
1 'x, y, z'
2 '-x+1/2, -y, z+1/2'
3 '-x, y+1/2, -z'
4 'x+1/2, -y+1/2, -z+1/2'
5 '-x, -y, -z'
6 'x+1/2, y, -z+1/2'
7 'x, -y+1/2, z'
8 '-x+1/2, y+1/2, z+1/2'

loop_
 _atom_site_label
 _atom_site_type_symbol
 _atom_site_symmetry_multiplicity
 _atom_site_fract_x
 _atom_site_fract_y
 _atom_site_fract_z
 _atom_site_occupancy
Mg     Mg       4     0.379722    0.250000    0.755670 1
Pb     Pb       8     0.145331    0.005299    0.791265 1
W      W        4     0.116607    0.250000    0.253990 1
O      O        8     0.133893    0.008343    0.229133 1
O      O        4     0.001323    0.250000    0.014990 1
O      O        4     0.010262    0.250000    0.495392 1
O      O        4     0.235503    0.250000    0.977400 1
O      O        4     0.251460    0.250000    0.462642 1
#END

