#############################################################
#             ______       _    _          _   	            #
#            (_____ \     \ \  / /        | |               #
#             _____) )   _ \ \/ / |_  ____| |  	            #
#            |  ____/ | | | )  (|  _)/ _  | | 	            #
#            | |    | |_| |/ /\ \ |_( (_| | |___            #
#            |_|     \__  /_/  \_\___)__|_|_____)           #
#                   (____/                                  #
#---------------------(version    0.3.7)--------------------#
#       A Python package for random crystal generation      #
#       url: https://github.com/qzhu2017/pyxtal             #
#       @Zhu's group at University of Nevada Las Vegas      #
#############################################################
data_from_pyxtal

_symmetry_space_group_name_H-M 'Pmmn'
_symmetry_Int_Tables_number                   59
_symmetry_cell_setting              orthorhombic
_cell_length_a            8.052585
_cell_length_b            5.800998
_cell_length_c            5.803773
_cell_angle_alpha        90.000000
_cell_angle_beta         90.000000
_cell_angle_gamma        90.000000
_cell_volume            271.111843

loop_
 _symmetry_equiv_pos_site_id
 _symmetry_equiv_pos_as_xyz
1 'x, y, z'
2 '-x+1/2, -y+1/2, z'
3 '-x, y+1/2, -z'
4 'x+1/2, -y, -z'
5 '-x, -y, -z'
6 'x+1/2, y+1/2, -z'
7 'x, -y+1/2, z'
8 '-x+1/2, y, z'

loop_
 _atom_site_label
 _atom_site_type_symbol
 _atom_site_symmetry_multiplicity
 _atom_site_fract_x
 _atom_site_fract_y
 _atom_site_fract_z
 _atom_site_occupancy
Mg     Mg       2     0.250000    0.250000    0.259444 1
W      W        2     0.250000    0.750000    0.733214 1
Pb     Pb       4     0.494701    0.250000    0.790662 1
O      O        4     0.250000    0.968468    0.502646 1
O      O        4     0.250000    0.006058    0.971006 1
O      O        4     0.991657    0.250000    0.232214 1
#END

