#############################################################
#             ______       _    _          _   	            #
#            (_____ \     \ \  / /        | |               #
#             _____) )   _ \ \/ / |_  ____| |  	            #
#            |  ____/ | | | )  (|  _)/ _  | | 	            #
#            | |    | |_| |/ /\ \ |_( (_| | |___            #
#            |_|     \__  /_/  \_\___)__|_|_____)           #
#                   (____/                                  #
#---------------------(version    0.3.7)--------------------#
#       A Python package for random crystal generation      #
#       url: https://github.com/qzhu2017/pyxtal             #
#       @Zhu's group at University of Nevada Las Vegas      #
#############################################################
data_from_pyxtal

_symmetry_space_group_name_H-M 'I4/mmm'
_symmetry_Int_Tables_number                  139
_symmetry_cell_setting                tetragonal
_cell_length_a            5.802386
_cell_length_b            5.802386
_cell_length_c            8.052585
_cell_angle_alpha        90.000000
_cell_angle_beta         90.000000
_cell_angle_gamma        90.000000
_cell_volume            271.111858

loop_
 _symmetry_equiv_pos_site_id
 _symmetry_equiv_pos_as_xyz
1 'x, y, z'
2 '-x, -y, z'
3 '-y, x, z'
4 'y, -x, z'
5 '-x, y, -z'
6 'x, -y, -z'
7 'y, x, -z'
8 '-y, -x, -z'
9 '-x, -y, -z'
10 'x, y, -z'
11 'y, -x, -z'
12 '-y, x, -z'
13 'x, -y, z'
14 '-x, y, z'
15 '-y, -x, z'
16 'y, x, z'
17 'x+1/2, y+1/2, z+1/2'
18 '-x+1/2, -y+1/2, z+1/2'
19 '-y+1/2, x+1/2, z+1/2'
20 'y+1/2, -x+1/2, z+1/2'
21 '-x+1/2, y+1/2, -z+1/2'
22 'x+1/2, -y+1/2, -z+1/2'
23 'y+1/2, x+1/2, -z+1/2'
24 '-y+1/2, -x+1/2, -z+1/2'
25 '-x+1/2, -y+1/2, -z+1/2'
26 'x+1/2, y+1/2, -z+1/2'
27 'y+1/2, -x+1/2, -z+1/2'
28 '-y+1/2, x+1/2, -z+1/2'
29 'x+1/2, -y+1/2, z+1/2'
30 '-x+1/2, y+1/2, z+1/2'
31 '-y+1/2, -x+1/2, z+1/2'
32 'y+1/2, x+1/2, z+1/2'

loop_
 _atom_site_label
 _atom_site_type_symbol
 _atom_site_symmetry_multiplicity
 _atom_site_fract_x
 _atom_site_fract_y
 _atom_site_fract_z
 _atom_site_occupancy
Mg     Mg       2     0.000000    0.000000    0.000000 1
W      W        2     0.000000    0.000000    0.500000 1
Pb     Pb       4     0.000000    0.500000    0.250000 1
O      O        4     0.000000    0.000000    0.741657 1
O      O        8     0.737633    0.737633    0.000000 1
#END

