
#======================================================================
# CRYSTAL DATA
#----------------------------------------------------------------------
data_VESTA_phase_1

_chemical_name_common                  'New structure'
_cell_length_a                         3.999900
_cell_length_b                         3.999900
_cell_length_c                         4.020000
_cell_angle_alpha                      90.000000
_cell_angle_beta                       90.000000
_cell_angle_gamma                      90.000000
_cell_volume                           64.316787
_space_group_name_H-M_alt              'P 4 m m'
_space_group_IT_number                 99

loop_
_space_group_symop_operation_xyz
   'x, y, z'
   '-x, -y, z'
   '-y, x, z'
   'y, -x, z'
   'x, -y, z'
   '-x, y, z'
   '-y, -x, z'
   'y, x, z'

loop_
   _atom_site_label
   _atom_site_occupancy
   _atom_site_fract_x
   _atom_site_fract_y
   _atom_site_fract_z
   _atom_site_adp_type
   _atom_site_B_iso_or_equiv
   _atom_site_type_symbol
   Ba         1.0     0.000000     0.000000     0.000000    Biso  1.000000 Ba
   Ti         1.0     0.500000     0.500000     0.420000    Biso  1.000000 Ti
   O          1.0     0.500000     0.500000     0.030000    Biso  1.000000 O
   O          1.0     0.500000     0.000000     0.580000    Biso  1.000000 O
