#======================================================================

# CRYSTAL DATA

#----------------------------------------------------------------------

data_VESTA_phase_1


_chemical_name_common                  'C34 H22 Cl2 N2 O2'
_cell_length_a                         10.4022(8)
_cell_length_b                         11.0302(14)
_cell_length_c                         14.179(1)
_cell_angle_alpha                      76.829(8)
_cell_angle_beta                       73.331(7)
_cell_angle_gamma                      63.470(12)
_space_group_name_H-M_alt              'P -1'
_space_group_IT_number                 2

loop_
_space_group_symop_operation_xyz
   'x, y, z'
   '-x, -y, -z'

loop_
   _atom_site_label
   _atom_site_occupancy
   _atom_site_fract_x
   _atom_site_fract_y
   _atom_site_fract_z
   Cl1        1.0     0.42324(8)    0.86294(10)   0.38315(5)   
   Cl2        1.0     0.19704(11)   1.32826(10)   0.35242(7)   
   O1         1.0     0.0265(2)     0.8255(2)     0.57289(11)  
   O2         1.0     0.1949(4)     1.2898(2)     0.07664(16)  
   N1         1.0     0.1339(2)     0.8332(2)     0.41005(13)  
   H1         1.0     0.217(2)      0.814(2)      0.3696(17)   
   N2         1.0     0.1416(2)     1.1655(2)     0.22127(14)  
   H2         1.0     0.084(3)      1.169(3)      0.2766(14)   
   C1         1.0     0.0351(2)     0.9550(2)     0.26655(16)  
   C2         1.0    -0.0864(4)     1.0267(2)     0.21899(17)  
   C3         1.0    -0.0703(4)     1.0836(4)     0.1183(2)    
   H3         1.0     0.022200      1.075600      0.081000     
   C4         1.0    -0.1901(4)     1.1503(4)     0.0756(2)    
   H4         1.0    -0.177800      1.187100      0.009400     
   C5         1.0    -0.3299(4)     1.1644(4)     0.1290(4)    
   H5         1.0    -0.409800      1.209800      0.098400     
   C6         1.0    -0.3497(4)     1.1121(4)     0.2254(2)    
   H6         1.0    -0.443500      1.122100      0.260800     
   C7         1.0    -0.2298(4)     1.0424(2)     0.27299(18)  
   C8         1.0    -0.2475(4)     0.9871(4)     0.3730(2)    
   H8         1.0    -0.341100      0.997100      0.409000     
   C9         1.0    -0.1326(2)     0.9197(2)     0.41863(17)  
   H9         1.0    -0.147800      0.883800      0.484900     
   C10        1.0     0.0111(2)     0.9037(2)     0.36536(16)  
   C11        1.0     0.1373(4)     0.8013(2)     0.50771(16)  
   C12        1.0     0.2857(4)     0.7272(2)     0.53361(16)  
   C13        1.0     0.2926(4)     0.6310(4)     0.6174(2)    
   H13        1.0     0.208000      0.618200      0.651500     
   C14        1.0     0.4201(4)     0.5551(4)     0.6507(2)    
   H14        1.0     0.421400      0.490900      0.706200     
   C15        1.0     0.5453(4)     0.5730(4)     0.6030(2)    
   H15        1.0     0.632000      0.520900      0.625500     
   C16        1.0     0.5427(4)     0.6686(4)     0.5213(2)    
   H16        1.0     0.627300      0.682600      0.489400     
   C17        1.0     0.4149(4)     0.7438(4)     0.48663(17)  
   C18        1.0     0.1881(2)     0.9328(2)     0.20988(14)  
   C19        1.0     0.2866(2)     0.8033(2)     0.17669(14)  
   C20        1.0     0.2432(4)     0.6940(2)     0.19137(17)  
   H20        1.0     0.148000      0.705600      0.224400     
   C21        1.0     0.3402(4)     0.5722(4)     0.1573(2)    
   H21        1.0     0.309600      0.502100      0.167100     
   C22        1.0     0.4838(4)     0.5507(4)     0.1082(2)    
   H22        1.0     0.548900      0.466200      0.087000     
   C23        1.0     0.5287(4)     0.6526(4)     0.09156(17)  
   H23        1.0     0.624400      0.638000      0.057500     
   C24        1.0     0.4330(4)     0.7813(2)     0.12491(16)  
   C25        1.0     0.4767(4)     0.8895(4)     0.10814(17)  
   H25        1.0     0.572200      0.876400      0.074800     
   C26        1.0     0.3826(4)     1.0120(4)     0.13948(17)  
   H26        1.0     0.414600      1.081600      0.127900     
   C27        1.0     0.2362(2)     1.0359(2)     0.18968(16)  
   C28        1.0     0.1326(4)     1.2841(4)     0.1642(2)    
   C29        1.0     0.0368(4)     1.4124(4)     0.2114(2)    
   C30        1.0    -0.0710(4)     1.5121(4)     0.1622(4)    
   H30        1.0    -0.082600      1.495900      0.104200     
   C31        1.0    -0.1593(4)     1.6336(4)     0.1997(4)    
   H31        1.0    -0.232400      1.699500      0.167800     
   C32        1.0    -0.1410(5)     1.6590(4)     0.2841(4)    
   H32        1.0    -0.202600      1.742000      0.308700     
   C33        1.0    -0.0353(4)     1.5659(4)     0.3323(4)    
   H33        1.0    -0.022900      1.584700      0.389000     
   C34        1.0     0.0545(4)     1.4414(4)     0.2948(2)    
#end
