
#######################################################################
#
#                 Cambridge Crystallographic Data Centre
#                                CCDC 
#
#######################################################################
#
# If this CIF has been generated from an entry in the Cambridge 
# Structural Database, then it will include bibliographic, chemical, 
# crystal, experimental, refinement or atomic coordinate data resulting 
# from the CCDC's data processing and validation procedures.
#
#######################################################################

data_PNDMAM10
_symmetry_cell_setting           cubic
_symmetry_space_group_name_H-M   'P a 3'
_symmetry_Int_Tables_number      205
_space_group_name_Hall           '-P 2ac 2ab 3'
loop_
_symmetry_equiv_pos_site_id
_symmetry_equiv_pos_as_xyz
1 x,y,z
2 z,x,y
3 y,z,x
4 1/2+x,y,1/2-z
5 1/2+z,x,1/2-y
6 1/2+y,z,1/2-x
7 1/2-x,1/2+y,z
8 1/2-z,1/2+x,y
9 1/2-y,1/2+z,x
10 -x,1/2+y,1/2-z
11 -z,1/2+x,1/2-y
12 -y,1/2+z,1/2-x
13 -x,-y,-z
14 -z,-x,-y
15 -y,-z,-x
16 1/2-x,-y,1/2+z
17 1/2-z,-x,1/2+y
18 1/2-y,-z,1/2+x
19 1/2+x,1/2-y,-z
20 1/2+z,1/2-x,-y
21 1/2+y,1/2-z,-x
22 x,1/2-y,1/2+z
23 z,1/2-x,1/2+y
24 y,1/2-z,1/2+x
_cell_length_a                   16.198(5)
_cell_length_b                   16.198(5)
_cell_length_c                   16.198(5)
_cell_angle_alpha                90
_cell_angle_beta                 90
_cell_angle_gamma                90
_cell_volume                     4249.95
loop_
_atom_site_label
_atom_site_type_symbol
_atom_site_fract_x
_atom_site_fract_y
_atom_site_fract_z
C1 C -0.09810 0.06000 -0.25880
C2 C -0.04100 -0.07390 -0.21950
C3 C 0.11980 0.19880 -0.21790
C4 C 0.11400 0.07690 -0.30320
H1 H -0.09000 0.05000 -0.32000
H2 H 0.12000 0.10000 -0.37000
H3 H 0.15000 0.05000 -0.29000
H4 H 0.07000 0.04000 -0.32000
H5 H -0.09000 0.11000 -0.26000
H6 H -0.15000 0.03000 -0.23000
H7 H -0.11000 -0.10000 -0.21000
H8 H -0.02000 -0.10000 -0.17000
H9 H -0.02000 -0.08000 -0.27000
H10 H 0.17000 0.18000 -0.21000
H11 H 0.08000 0.23000 -0.19000
H12 H 0.10000 0.24000 -0.26000
N1 N 0.09600 -0.00440 -0.13100
N2 N -0.04100 0.01460 -0.20640
N3 N 0.07550 0.12220 -0.23530
P1 P 0.03520 0.06480 -0.15930
N1N N 0.00440 0.13100 -0.09600
P1M P 0.15930 -0.03520 -0.06480
P1N P -0.06480 0.15930 -0.03520
N1M N 0.13100 -0.09600 0.00440
N2M N 0.20640 0.04100 -0.01460
N3M N 0.23530 -0.07550 -0.12220
N1A N -0.13100 0.09600 -0.00440
N2N N -0.01460 0.20640 0.04100
N3N N -0.12220 0.23530 -0.07550
P1B P 0.06480 -0.15930 0.03520
C1M C 0.25880 0.09810 -0.06000
C2M C 0.21950 0.04100 0.07390
C3M C 0.21790 -0.11980 -0.19880
C4M C 0.30320 -0.11400 -0.07690
P1A P -0.15930 0.03520 0.06480
C1N C -0.06000 0.25880 0.09810
C2N C 0.07390 0.21950 0.04100
C3N C -0.19880 0.21790 -0.11980
C4N C -0.07690 0.30320 -0.11400
N1B N -0.00440 -0.13100 0.09600
N2B N 0.01460 -0.20640 -0.04100
N3B N 0.12220 -0.23530 0.07550
H1M H 0.32000 0.09000 -0.05000
H5M H 0.26000 0.09000 -0.11000
H6M H 0.23000 0.15000 -0.03000
H7M H 0.21000 0.11000 0.10000
H8M H 0.17000 0.02000 0.10000
H9M H 0.27000 0.02000 0.08000
H10M H 0.21000 -0.17000 -0.18000
H11M H 0.19000 -0.08000 -0.23000
H12M H 0.26000 -0.10000 -0.24000
H2M H 0.37000 -0.12000 -0.10000
H3M H 0.29000 -0.15000 -0.05000
H4M H 0.32000 -0.07000 -0.04000
N1L N -0.09600 0.00440 0.13100
N2A N -0.20640 -0.04100 0.01460
N3A N -0.23530 0.07550 0.12220
H1N H -0.05000 0.32000 0.09000
H5N H -0.11000 0.26000 0.09000
H6N H -0.03000 0.23000 0.15000
H7N H 0.10000 0.21000 0.11000
H8N H 0.10000 0.17000 0.02000
H9N H 0.08000 0.27000 0.02000
H10N H -0.18000 0.21000 -0.17000
H11N H -0.23000 0.19000 -0.08000
H12N H -0.24000 0.26000 -0.10000
H2N H -0.10000 0.37000 -0.12000
H3N H -0.05000 0.29000 -0.15000
H4N H -0.04000 0.32000 -0.07000
P1L P -0.03520 -0.06480 0.15930
C1B C 0.06000 -0.25880 -0.09810
C2B C -0.07390 -0.21950 -0.04100
C3B C 0.19880 -0.21790 0.11980
C4B C 0.07690 -0.30320 0.11400
C1A C -0.25880 -0.09810 0.06000
C2A C -0.21950 -0.04100 -0.07390
C3A C -0.21790 0.11980 0.19880
C4A C -0.30320 0.11400 0.07690
N2L N 0.04100 -0.01460 0.20640
N3L N -0.07550 -0.12220 0.23530
H1B H 0.05000 -0.32000 -0.09000
H5B H 0.11000 -0.26000 -0.09000
H6B H 0.03000 -0.23000 -0.15000
H7B H -0.10000 -0.21000 -0.11000
H8B H -0.10000 -0.17000 -0.02000
H9B H -0.08000 -0.27000 -0.02000
H10B H 0.18000 -0.21000 0.17000
H11B H 0.23000 -0.19000 0.08000
H12B H 0.24000 -0.26000 0.10000
H2B H 0.10000 -0.37000 0.12000
H3B H 0.05000 -0.29000 0.15000
H4B H 0.04000 -0.32000 0.07000
H1A H -0.32000 -0.09000 0.05000
H5A H -0.26000 -0.09000 0.11000
H6A H -0.23000 -0.15000 0.03000
H7A H -0.21000 -0.11000 -0.10000
H8A H -0.17000 -0.02000 -0.10000
H9A H -0.27000 -0.02000 -0.08000
H10A H -0.21000 0.17000 0.18000
H11A H -0.19000 0.08000 0.23000
H12A H -0.26000 0.10000 0.24000
H2A H -0.37000 0.12000 0.10000
H3A H -0.29000 0.15000 0.05000
H4A H -0.32000 0.07000 0.04000
C1L C 0.09810 -0.06000 0.25880
C2L C 0.04100 0.07390 0.21950
C3L C -0.11980 -0.19880 0.21790
C4L C -0.11400 -0.07690 0.30320
H1L H 0.09000 -0.05000 0.32000
H5L H 0.09000 -0.11000 0.26000
H6L H 0.15000 -0.03000 0.23000
H7L H 0.11000 0.10000 0.21000
H8L H 0.02000 0.10000 0.17000
H9L H 0.02000 0.08000 0.27000
H10L H -0.17000 -0.18000 0.21000
H11L H -0.08000 -0.23000 0.19000
H12L H -0.10000 -0.24000 0.26000
H2L H -0.12000 -0.10000 0.37000
H3L H -0.15000 -0.05000 0.29000
H4L H -0.07000 -0.04000 0.32000

#END
