#======================================================================

# CRYSTAL DATA

#----------------------------------------------------------------------

data_VESTA_phase_1


_chemical_name_common                  'Pb2 O F Cl'
_cell_length_a                         5.72210
_cell_length_b                         5.72690
_cell_length_c                         12.54100
_cell_angle_alpha                      90
_cell_angle_beta                       90
_cell_angle_gamma                      90
_space_group_name_H-M_alt              'A e m m'
_space_group_IT_number                 67

loop_
_space_group_symop_operation_xyz
   'x, y, z'
   '-x, -y, -z'
   'x, -y+1/2, -z'
   '-x, y+1/2, z'
   '-x, y+1/2, -z'
   'x, -y+1/2, z'
   '-x, -y, z'
   'x, y, -z'
   'x, y+1/2, z+1/2'
   '-x, -y+1/2, -z+1/2'
   'x, -y, -z+1/2'
   '-x, y, z+1/2'
   '-x, y, -z+1/2'
   'x, -y, z+1/2'
   '-x, -y+1/2, z+1/2'
   'x, y+1/2, -z+1/2'

loop_
   _atom_site_label
   _atom_site_occupancy
   _atom_site_fract_x
   _atom_site_fract_y
   _atom_site_fract_z
   _atom_site_adp_type
   _atom_site_B_iso_or_equiv
   _atom_site_type_symbol
   Pb         1.0     0.220460      0.250000      0.146510     Biso  1.000000 Pb
   O          1.0     0.000000      0.000000      0.250000     Biso  1.000000 O
   F          1.0     0.500000      0.000000      0.250000     Biso  1.000000 F
   Cl         1.0     0.222700      0.250000      0.500000     Biso  1.000000 Cl
